My second git file.
Nothing to say.
new line.
